Version 4
SHEET 1 1112 680
WIRE 128 -32 128 -80
WIRE 128 -32 16 -32
WIRE 240 -32 128 -32
WIRE 16 16 16 -32
WIRE 240 16 240 -32
WIRE 240 112 240 96
WIRE 432 112 240 112
WIRE 640 112 496 112
WIRE 240 128 240 112
WIRE 640 144 640 112
WIRE 16 176 16 96
WIRE 16 176 -64 176
WIRE 176 176 16 176
WIRE -64 224 -64 176
WIRE 240 256 240 224
WIRE 304 256 240 256
WIRE 448 256 368 256
WIRE 640 256 640 224
WIRE 16 288 16 176
WIRE 240 288 240 256
WIRE 448 368 448 336
WIRE -64 400 -64 288
WIRE 16 400 16 368
WIRE 16 400 -64 400
WIRE 128 400 16 400
WIRE 240 400 240 368
WIRE 240 400 128 400
WIRE 128 464 128 400
FLAG 128 464 0
FLAG 448 448 0
FLAG 640 256 0
FLAG -112 -208 0
FLAG 128 -80 Vcc
FLAG -112 -288 Vcc
SYMBOL npn 176 128 R0
SYMATTR InstName Q1
SYMATTR Value 2N2222
SYMBOL res 224 0 R0
SYMATTR InstName R1
SYMATTR Value 4.7k
SYMBOL res 0 0 R0
SYMATTR InstName R2
SYMATTR Value 68k
SYMBOL res 0 272 R0
SYMATTR InstName R3
SYMATTR Value 39k
SYMBOL res 224 272 R0
SYMATTR InstName R4
SYMATTR Value 4.7k
SYMBOL cap -80 224 R0
SYMATTR InstName C1
SYMATTR Value 100µ
SYMBOL cap 368 240 R90
WINDOW 0 0 32 VBottom 2
WINDOW 3 32 32 VTop 2
SYMATTR InstName C2
SYMATTR Value 1µ
SYMBOL res 432 240 R0
SYMATTR InstName R5
SYMATTR Value 50
SYMBOL voltage 448 352 R0
WINDOW 123 24 124 Left 2
WINDOW 39 0 0 Left 0
SYMATTR Value2 AC 1
SYMATTR InstName V1
SYMATTR Value SINE(0 10m 10k)
SYMBOL cap 496 96 R90
WINDOW 0 0 32 VBottom 2
WINDOW 3 32 32 VTop 2
SYMATTR InstName C3
SYMATTR Value 100n
SYMBOL res 624 128 R0
SYMATTR InstName R6
SYMATTR Value 33k
SYMBOL voltage -112 -304 R0
WINDOW 123 0 0 Left 0
WINDOW 39 0 0 Left 0
SYMATTR InstName V2
SYMATTR Value 5
TEXT -408 456 Left 2 !.tran 0 100m 99m\n;ac dec 1000 1 1meg
TEXT 800 240 Left 2 ;Ic   = 1mA\nVce= 5.7v\nAvo= 170.12V/V(44.6dB)\nAv  = 1448.9V/V(43.46dB)\nGv  = 49.6V/V(33.9dB)
