Version 4
SHEET 1 880 680
WIRE -176 -128 -448 -128
WIRE -64 -128 -176 -128
WIRE 144 -128 32 -128
WIRE 256 -128 144 -128
WIRE 352 -128 336 -128
WIRE 464 -128 352 -128
WIRE -176 -112 -176 -128
WIRE -448 -32 -448 -128
WIRE 144 -16 144 -128
WIRE -176 48 -176 -32
WIRE -16 48 -16 -64
WIRE -16 48 -176 48
WIRE 96 48 -16 48
WIRE 352 48 352 -128
WIRE 352 48 192 48
WIRE 352 64 352 48
WIRE 464 96 464 -128
WIRE -16 112 -16 48
WIRE 352 160 352 144
WIRE 352 160 48 160
WIRE 352 208 352 160
WIRE -16 240 -16 208
WIRE -448 336 -448 48
WIRE -16 336 -16 304
WIRE -16 336 -448 336
WIRE 352 336 352 288
WIRE 352 336 -16 336
WIRE 464 336 464 176
WIRE 464 336 352 336
WIRE -16 384 -16 336
FLAG -16 384 0
SYMBOL npn -64 -64 R270
SYMATTR InstName Q1
SYMATTR Value Qbd139
SYMBOL npn 96 -16 M90
SYMATTR InstName Q2
SYMATTR Value 2N3904
SYMBOL npn 48 112 M0
SYMATTR InstName Q3
SYMATTR Value 2N3904
SYMBOL zener 0 304 R180
WINDOW 0 24 64 Left 2
WINDOW 3 24 0 Left 2
SYMATTR InstName D1
SYMATTR Value 1N750
SYMBOL res 352 -144 R90
WINDOW 0 0 56 VBottom 2
WINDOW 3 32 56 VTop 2
SYMATTR InstName R1
SYMATTR Value 10
SYMBOL res -160 -16 R180
WINDOW 0 36 76 Left 2
WINDOW 3 36 40 Left 2
SYMATTR InstName R2
SYMATTR Value 470
SYMBOL res 368 160 R180
WINDOW 0 36 76 Left 2
WINDOW 3 36 40 Left 2
SYMATTR InstName R3
SYMATTR Value 3.56k
SYMBOL res 368 304 R180
WINDOW 0 36 76 Left 2
WINDOW 3 36 40 Left 2
SYMATTR InstName R4
SYMATTR Value 9.71k
SYMBOL voltage -448 -48 R0
WINDOW 123 0 0 Left 0
WINDOW 39 0 0 Left 0
SYMATTR InstName V1
SYMATTR Value 18v
SYMBOL res 448 80 R0
SYMATTR InstName R5
SYMATTR Value 10k
TEXT -152 464 Left 2 !.include bd139.lib
TEXT -154 442 Left 2 !.tran 1s
