Version 4
SHEET 1 880 680
WIRE 128 64 64 64
WIRE 240 64 208 64
WIRE -656 96 -656 32
WIRE -336 96 -336 32
WIRE 240 144 240 64
WIRE 272 144 240 144
WIRE 384 144 336 144
WIRE 496 144 384 144
WIRE 384 160 384 144
WIRE 128 224 64 224
WIRE 240 224 240 144
WIRE 240 224 208 224
WIRE -656 240 -656 176
WIRE -336 240 -336 176
WIRE 384 272 384 240
WIRE -656 368 -656 320
WIRE -336 368 -336 320
FLAG 384 272 0
FLAG 496 144 Z_RF
FLAG 64 64 Carrier/LO
FLAG 64 224 Signal/IF
FLAG -656 32 Carrier/LO
FLAG -336 32 Signal/IF
FLAG -656 368 0
FLAG -336 368 0
SYMBOL res 224 48 R90
WINDOW 0 0 56 VBottom 2
WINDOW 3 32 56 VTop 2
SYMATTR InstName R1
SYMATTR Value 1k
SYMBOL res 224 208 R90
WINDOW 0 0 56 VBottom 2
WINDOW 3 32 56 VTop 2
SYMATTR InstName R2
SYMATTR Value 1k
SYMBOL diode 272 160 R270
WINDOW 0 32 32 VTop 2
WINDOW 3 0 32 VBottom 2
SYMATTR InstName D1
SYMATTR Value 1N4148
SYMBOL res 368 144 R0
SYMATTR InstName R3
SYMATTR Value 10k
SYMBOL voltage -656 80 R0
WINDOW 123 0 0 Left 0
WINDOW 39 0 0 Left 0
SYMATTR InstName V1
SYMATTR Value SINE(0 0.8 1000k)
SYMBOL voltage -336 80 R0
WINDOW 123 0 0 Left 0
WINDOW 39 0 0 Left 0
SYMATTR InstName V2
SYMATTR Value PULSE(-0.8 0.8 0 50u 50u 0 100u 0)
SYMBOL voltage -656 224 R0
WINDOW 123 0 0 Left 0
WINDOW 39 0 0 Left 0
SYMATTR InstName V3
SYMATTR Value 0.8
SYMBOL voltage -336 224 R0
WINDOW 123 0 0 Left 0
WINDOW 39 0 0 Left 0
SYMATTR InstName V4
SYMATTR Value 0.8
TEXT -32 344 Left 2 !.tran 1000u
